[General]
network = lora.simulations.Net
sim-time-limit=1000s
Net.WELL[0].id=0
Net.WELL[1].id=1
Net.WELL[2].id=2
Net.WELL[3].id=3
Net.WELL[4].id=4
Net.WELL[5].id=5
Net.WELL[6].id=6
Net.WELL[7].id=7
Net.WELL[8].id=8
Net.WELL[9].id=9
Net.WELL[10].id=10
Net.WELL[11].id=11
Net.WELL[12].id=12
Net.WELL[13].id=13
Net.WELL[14].id=14
Net.WELL[15].id=15
Net.WELL[16].id=16
Net.WELL[17].id=17
Net.WELL[18].id=18
Net.WELL[19].id=19
Net.WELL[20].id=20
Net.WELL[21].id=21
Net.WELL[22].id=22
Net.WELL[23].id=23
Net.WELL[24].id=24
Net.WELL[25].id=25
Net.WELL[26].id=26
Net.WELL[27].id=27
Net.WELL[28].id=28
Net.WELL[29].id=29
Net.WELL[30].id=30
Net.WELL[31].id=31
Net.WELL[32].id=32
Net.WELL[33].id=33
Net.WELL[34].id=34
Net.WELL[35].id=35
Net.WELL[36].id=36
Net.WELL[37].id=37
Net.WELL[38].id=38
Net.WELL[39].id=39
Net.WELL[40].id=40
Net.WELL[41].id=41
Net.WELL[42].id=42
Net.WELL[43].id=43
Net.WELL[44].id=44
Net.WELL[45].id=45
Net.WELL[46].id=46
Net.WELL[47].id=47
Net.WELL[48].id=48
Net.WELL[49].id=49
Net.WELL[50].id=50
Net.WELL[51].id=51
Net.WELL[52].id=52
Net.WELL[53].id=53
Net.WELL[54].id=54
Net.WELL[55].id=55
Net.WELL[56].id=56
Net.WELL[57].id=57
Net.WELL[58].id=58
Net.WELL[59].id=59
Net.WELL[60].id=60
Net.WELL[61].id=61
Net.WELL[62].id=62
Net.WGW[0].id=63
Net.WGW[1].id=64
Net.WGW[2].id=65
Net.WGW[3].id=66
Net.WGW[4].id=67
Net.WGW[5].id=68
Net.WGW[6].id=69
Net.WGW[7].id=70
Net.WGW[8].id=71
Net.WGW[9].id=72
Net.WGW[10].id=73
Net.WGW[11].id=74
Net.WGW[12].id=75
Net.WGW[13].id=76
Net.WGW[14].id=77
Net.WGW[15].id=78
Net.WGW[16].id=79
Net.WGW[17].id=80
Net.WGW[18].id=81
Net.WGW[19].id=82
Net.WGW[20].id=83
Net.WGW[21].id=84
Net.WGW[22].id=85
Net.WGW[23].id=86
Net.WGW[24].id=87
Net.WGW[25].id=88
Net.WGW[26].id=89
Net.WGW[27].id=90
Net.WGW[28].id=91
Net.WGW[29].id=92
Net.WGW[30].id=93
Net.WGW[31].id=94
Net.WGW[32].id=95
Net.WGW[33].id=96
Net.WGW[34].id=97
Net.WGW[35].id=98
Net.WGW[36].id=99
Net.WGW[37].id=100
Net.WGW[38].id=101
Net.WGW[39].id=102
Net.WGW[40].id=103
Net.WGW[41].id=104
Net.WGW[42].id=105
Net.WGW[43].id=106
Net.WGW[44].id=107
Net.WGW[45].id=108
Net.WGW[46].id=109
Net.WGW[47].id=110
Net.WGW[48].id=111
Net.WGW[49].id=112
Net.WGW[50].id=113
Net.WGW[51].id=114
Net.WGW[52].id=115
Net.WGW[53].id=116
Net.WGW[54].id=117
Net.WGW[55].id=118
Net.WGW[56].id=119
Net.WGW[57].id=120
Net.WGW[58].id=121
Net.WGW[59].id=122
Net.WGW[60].id=123
Net.WGW[61].id=124
Net.WGW[62].id=125
Net.WGW[63].id=126
Net.WGW[64].id=127
Net.WGW[65].id=128
Net.WGW[66].id=129
Net.WGW[67].id=130
Net.WGW[68].id=131
Net.WGW[69].id=132
Net.WGW[70].id=133
Net.WGW[71].id=134
Net.WGW[72].id=135
Net.WGW[73].id=136
Net.WGW[74].id=137
Net.WGW[75].id=138
Net.WGW[76].id=139
Net.WGW[77].id=140
Net.WGW[78].id=141
Net.WGW[79].id=142
Net.WGW[80].id=143
Net.WGW[81].id=144
Net.WGW[82].id=145
Net.WGW[83].id=146
Net.WGW[84].id=147
Net.WGW[85].id=148
Net.WGW[86].id=149
Net.WGW[87].id=150
Net.WGW[88].id=151
Net.WGW[89].id=152
Net.WGW[90].id=153
Net.WGW[91].id=154
Net.WGW[92].id=155
Net.WGW[93].id=156
Net.WGW[94].id=157
Net.WGW[95].id=158
Net.WGW[96].id=159
Net.WGW[97].id=160
Net.WGW[98].id=161
Net.WGW[99].id=162
Net.WGW[100].id=163
Net.WGW[101].id=164
Net.WGW[102].id=165
Net.WGW[103].id=166
Net.WGW[104].id=167
Net.WGW[105].id=168
Net.WGW[106].id=169
Net.WGW[107].id=170
Net.WGW[108].id=171
Net.WGW[109].id=172
Net.WGW[110].id=173
Net.WGW[111].id=174
Net.WGW[112].id=175
Net.WGW[113].id=176
Net.WGW[114].id=177
Net.WGW[115].id=178
Net.WGW[116].id=179
Net.WGW[117].id=180
Net.WGW[118].id=181
Net.WGW[119].id=182
Net.WGW[120].id=183
Net.WGW[121].id=184
Net.WGW[122].id=185
Net.WGW[123].id=186
Net.WGW[124].id=187
Net.WGW[125].id=188
Net.WGW[126].id=189
Net.WGW[127].id=190
Net.WGW[128].id=191
Net.WGW[129].id=192
Net.WGW[130].id=193
Net.WGW[131].id=194
Net.WGW[132].id=195
Net.WGW[133].id=196
Net.WGW[134].id=197
Net.WGW[135].id=198
Net.WGW[136].id=199
Net.WGW[137].id=200
Net.WGW[138].id=201
Net.WGW[139].id=202
Net.WGW[140].id=203
Net.WGW[141].id=204
Net.WGW[142].id=205
Net.WGW[143].id=206
Net.WGW[144].id=207
Net.WGW[145].id=208
Net.WGW[146].id=209
Net.WGW[147].id=210
Net.WGW[148].id=211
Net.WGW[149].id=212
Net.WGW[150].id=213
Net.WGW[151].id=214
Net.WGW[152].id=215
Net.WGW[153].id=216
Net.WGW[154].id=217
Net.WGW[155].id=218
Net.WGW[156].id=219
Net.WGW[157].id=220
Net.WGW[158].id=221
Net.WGW[159].id=222
Net.WGW[160].id=223
Net.WGW[161].id=224
Net.WGW[162].id=225
Net.WGW[163].id=226
Net.WGW[164].id=227
Net.WGW[165].id=228
Net.WGW[166].id=229
Net.WGW[167].id=230
Net.WGW[168].id=231
Net.WGW[169].id=232
Net.WGW[170].id=233
Net.WGW[171].id=234
Net.WGW[172].id=235
Net.WGW[173].id=236
Net.WGW[174].id=237
Net.WGW[175].id=238
Net.WGW[176].id=239
Net.WGW[177].id=240
Net.WGW[178].id=241
Net.WGW[179].id=242
Net.WGW[180].id=243
Net.WGW[181].id=244
Net.WGW[182].id=245
Net.WGW[183].id=246
Net.WGW[184].id=247
Net.WGW[185].id=248
Net.WGW[186].id=249
Net.WGW[187].id=250
Net.WGW[188].id=251
Net.WGW[189].id=252
Net.WGW[190].id=253
Net.WGW[191].id=254
Net.WGW[192].id=255
Net.WGW[193].id=256
Net.WGW[194].id=257
Net.WGW[195].id=258
Net.WGW[196].id=259
Net.WGW[197].id=260
Net.WGW[198].id=261
Net.WGW[199].id=262
Net.WGW[200].id=263
Net.WGW[201].id=264
Net.WGW[202].id=265
Net.WGW[203].id=266
Net.WGW[204].id=267
Net.WGW[205].id=268
Net.WGW[206].id=269
Net.WGW[207].id=270
Net.WGW[208].id=271
Net.WGW[209].id=272
Net.WGW[210].id=273
Net.WGW[211].id=274
Net.WGW[212].id=275
Net.WGW[213].id=276
Net.WGW[214].id=277
Net.WGW[215].id=278
Net.WGW[216].id=279
Net.WGW[217].id=280
Net.WGW[218].id=281
Net.WGW[219].id=282
Net.WGW[220].id=283
Net.WGW[221].id=284
Net.WGW[222].id=285
Net.WGW[223].id=286
Net.WGW[224].id=287
Net.WGW[225].id=288
Net.WGW[226].id=289
Net.WGW[227].id=290
Net.WGW[228].id=291
Net.WGW[229].id=292
Net.WGW[230].id=293
Net.WGW[231].id=294
Net.WGW[232].id=295
Net.WGW[233].id=296
Net.WGW[234].id=297
Net.WGW[235].id=298
Net.WGW[236].id=299
Net.IN[0].id=300
Net.IN[1].id=301
Net.IN[2].id=302
Net.IN[3].id=303
Net.IN[4].id=304
Net.IN[5].id=305
Net.IN[6].id=306
Net.IN[7].id=307
Net.IN[8].id=308
Net.IN[9].id=309
Net.IN[10].id=310
Net.IN[11].id=311
Net.IN[12].id=312
Net.IN[13].id=313
Net.IN[14].id=314
Net.IN[15].id=315
Net.IN[16].id=316
Net.IN[17].id=317
Net.IN[18].id=318
Net.IN[19].id=319
Net.IN[20].id=320
Net.IN[21].id=321
Net.IN[22].id=322
Net.IN[23].id=323
Net.IN[24].id=324
Net.IN[25].id=325
Net.IN[26].id=326
Net.IN[27].id=327
Net.IN[28].id=328
Net.IN[29].id=329
Net.IN[30].id=330
Net.IN[31].id=331
Net.IN[32].id=332
Net.IN[33].id=333
Net.IN[34].id=334
Net.IN[35].id=335
Net.IN[36].id=336
Net.IN[37].id=337
Net.IN[38].id=338
Net.IN[39].id=339
Net.IN[40].id=340
Net.IN[41].id=341
Net.IN[42].id=342
Net.IN[43].id=343
Net.IN[44].id=344
Net.IN[45].id=345
Net.IN[46].id=346
Net.IN[47].id=347
Net.IN[48].id=348
Net.IN[49].id=349
Net.IN[50].id=350
Net.IN[51].id=351
Net.IN[52].id=352
Net.IN[53].id=353
Net.IN[54].id=354
Net.IN[55].id=355
Net.IN[56].id=356
Net.IN[57].id=357
Net.IN[58].id=358
Net.IN[59].id=359
Net.IN[60].id=360
Net.IN[61].id=361
Net.IN[62].id=362
Net.IN[63].id=363
Net.IN[64].id=364
Net.IN[65].id=365
Net.IN[66].id=366
Net.IN[67].id=367
Net.IN[68].id=368
Net.IN[69].id=369
Net.IN[70].id=370
Net.IN[71].id=371
Net.IN[72].id=372
Net.IN[73].id=373
Net.IN[74].id=374
Net.IN[75].id=375
Net.IN[76].id=376
Net.IN[77].id=377
Net.IN[78].id=378
Net.IN[79].id=379
Net.IN[80].id=380
Net.IN[81].id=381
Net.IN[82].id=382
Net.IN[83].id=383
Net.IN[84].id=384
Net.IN[85].id=385
Net.IN[86].id=386
Net.IN[87].id=387
Net.IN[88].id=388
Net.IN[89].id=389
Net.IN[90].id=390
Net.IN[91].id=391
Net.IN[92].id=392
Net.IN[93].id=393
Net.IN[94].id=394
Net.IN[95].id=395
Net.IN[96].id=396
Net.IN[97].id=397
Net.IN[98].id=398
Net.IN[99].id=399
Net.IN[100].id=400
Net.IN[101].id=401
Net.IN[102].id=402
Net.IN[103].id=403
Net.IN[104].id=404
Net.IN[105].id=405
Net.IN[106].id=406
Net.IN[107].id=407
Net.IN[108].id=408
Net.IN[109].id=409
Net.IN[110].id=410
Net.IN[111].id=411
Net.IN[112].id=412
Net.IN[113].id=413
Net.IN[114].id=414
Net.IN[115].id=415
Net.IN[116].id=416
Net.IN[117].id=417
Net.IN[118].id=418
Net.IN[119].id=419
Net.IN[120].id=420
Net.IN[121].id=421
Net.IN[122].id=422
Net.IN[123].id=423
Net.IN[124].id=424
Net.IN[125].id=425
Net.IN[126].id=426
Net.IN[127].id=427
Net.IN[128].id=428
Net.IN[129].id=429
Net.IN[130].id=430
Net.IN[131].id=431
Net.IN[132].id=432
Net.IN[133].id=433
Net.IN[134].id=434
Net.IN[135].id=435
Net.IN[136].id=436
Net.IN[137].id=437
Net.IN[138].id=438
Net.IN[139].id=439
Net.IN[140].id=440
Net.IN[141].id=441
Net.IN[142].id=442
Net.IN[143].id=443
Net.IN[144].id=444
Net.IN[145].id=445
Net.IN[146].id=446
Net.IN[147].id=447
Net.IN[148].id=448
Net.IN[149].id=449
Net.IN[150].id=450
Net.IN[151].id=451
Net.IN[152].id=452
Net.IN[153].id=453
Net.IN[154].id=454
Net.IN[155].id=455
Net.IN[156].id=456
Net.IN[157].id=457
Net.IN[158].id=458
Net.IN[159].id=459
Net.IN[160].id=460
Net.IN[161].id=461
Net.IN[162].id=462
Net.IN[163].id=463
Net.IN[164].id=464
Net.IN[165].id=465
Net.IN[166].id=466
Net.IN[167].id=467
Net.IN[168].id=468
Net.IN[169].id=469
Net.IN[170].id=470
Net.IN[171].id=471
Net.IN[172].id=472
Net.IN[173].id=473
Net.IN[174].id=474
Net.IN[175].id=475
Net.IN[176].id=476
Net.IN[177].id=477
Net.IN[178].id=478
Net.IN[179].id=479
Net.IN[180].id=480
Net.IN[181].id=481
Net.IN[182].id=482
Net.IN[183].id=483
Net.IN[184].id=484
Net.IN[185].id=485
Net.IN[186].id=486
Net.IN[187].id=487
Net.IN[188].id=488
Net.IN[189].id=489
Net.IN[190].id=490
Net.IN[191].id=491
Net.IN[192].id=492
Net.IN[193].id=493
Net.IN[194].id=494
Net.IN[195].id=495
Net.IN[196].id=496
Net.IN[197].id=497
Net.IN[198].id=498
Net.IN[199].id=499
Net.IN[200].id=500
Net.IN[201].id=501
Net.IN[202].id=502
Net.IN[203].id=503
Net.IN[204].id=504
Net.IN[205].id=505
Net.IN[206].id=506
Net.IN[207].id=507
Net.IN[208].id=508
Net.IN[209].id=509
Net.IN[210].id=510
Net.IN[211].id=511
Net.IN[212].id=512
Net.IN[213].id=513
Net.IN[214].id=514
Net.IN[215].id=515
Net.IN[216].id=516
Net.IN[217].id=517
Net.IN[218].id=518
Net.IN[219].id=519
Net.IN[220].id=520
Net.IN[221].id=521
Net.IN[222].id=522
Net.IN[223].id=523
Net.IN[224].id=524
Net.IN[225].id=525
Net.IN[226].id=526
Net.IN[227].id=527
Net.IN[228].id=528
Net.IN[229].id=529
Net.IN[230].id=530
Net.IN[231].id=531
Net.IN[232].id=532
Net.IN[233].id=533
Net.IN[234].id=534
Net.IN[235].id=535
Net.IN[236].id=536
Net.IN[237].id=537
Net.IN[238].id=538
Net.IN[239].id=539
Net.IN[240].id=540
Net.IN[241].id=541
Net.IN[242].id=542
Net.IN[243].id=543
Net.IN[244].id=544
Net.IN[245].id=545
Net.IN[246].id=546
Net.IN[247].id=547
Net.IN[248].id=548
Net.IN[249].id=549
Net.IN[250].id=550
Net.IN[251].id=551
Net.IN[252].id=552
Net.IN[253].id=553
Net.IN[254].id=554
Net.IN[255].id=555
Net.IN[256].id=556
Net.IN[257].id=557
Net.IN[258].id=558
Net.IN[259].id=559
Net.IN[260].id=560
Net.IN[261].id=561
Net.IN[262].id=562
Net.IN[263].id=563
Net.IN[264].id=564
Net.IN[265].id=565
Net.IN[266].id=566
Net.IN[267].id=567
Net.IN[268].id=568
Net.IN[269].id=569
Net.IN[270].id=570
Net.IN[271].id=571
Net.IN[272].id=572
Net.IN[273].id=573
Net.IN[274].id=574
Net.IN[275].id=575
Net.IN[276].id=576
Net.IN[277].id=577
Net.IN[278].id=578
Net.IN[279].id=579
Net.IN[280].id=580
Net.IN[281].id=581
Net.IN[282].id=582
Net.IN[283].id=583
Net.IN[284].id=584
Net.IN[285].id=585
Net.IN[286].id=586
Net.IN[287].id=587
Net.IN[288].id=588
Net.IN[289].id=589
Net.IN[290].id=590
Net.IN[291].id=591
Net.IN[292].id=592
Net.IN[293].id=593
Net.IN[294].id=594
Net.IN[295].id=595
Net.IN[296].id=596
Net.IN[297].id=597
Net.IN[298].id=598
Net.IN[299].id=599
Net.IN[300].id=600
Net.IN[301].id=601
Net.IN[302].id=602
Net.IN[303].id=603
Net.IN[304].id=604
Net.IN[305].id=605
Net.IN[306].id=606
Net.IN[307].id=607
Net.IN[308].id=608
Net.IN[309].id=609
Net.IN[310].id=610
Net.IN[311].id=611
Net.IN[312].id=612
Net.IN[313].id=613
Net.IN[314].id=614
Net.IN[315].id=615
Net.IN[316].id=616
Net.IN[317].id=617
Net.IN[318].id=618
Net.IN[319].id=619
Net.IN[320].id=620
Net.IN[321].id=621
Net.IN[322].id=622
Net.IN[323].id=623
Net.IN[324].id=624
Net.IN[325].id=625
Net.IN[326].id=626
Net.IN[327].id=627
Net.IN[328].id=628
Net.IN[329].id=629
Net.IN[330].id=630
Net.IN[331].id=631
Net.IN[332].id=632
Net.IN[333].id=633
Net.IN[334].id=634
Net.IN[335].id=635
Net.IN[336].id=636
Net.IN[337].id=637
Net.IN[338].id=638
Net.IN[339].id=639
Net.IN[340].id=640
Net.IN[341].id=641
Net.IN[342].id=642
Net.IN[343].id=643
Net.IN[344].id=644
Net.IN[345].id=645
Net.IN[346].id=646
Net.IN[347].id=647
Net.IN[348].id=648
Net.IN[349].id=649
Net.IN[350].id=650
Net.IN[351].id=651
Net.IN[352].id=652
Net.IN[353].id=653
Net.IN[354].id=654
Net.IN[355].id=655
Net.IN[356].id=656
Net.IN[357].id=657
Net.IN[358].id=658
Net.IN[359].id=659
Net.IN[360].id=660
Net.IN[361].id=661
Net.IN[362].id=662
Net.IN[363].id=663
Net.IN[364].id=664
Net.IN[365].id=665
Net.IN[366].id=666
Net.IN[367].id=667
Net.IN[368].id=668
Net.IN[369].id=669
Net.IN[370].id=670
Net.IN[371].id=671
Net.IN[372].id=672
Net.IN[373].id=673
Net.IN[374].id=674
Net.IN[375].id=675
Net.IN[376].id=676
Net.IN[377].id=677
Net.IN[378].id=678
Net.IN[379].id=679
Net.IN[380].id=680
Net.IN[381].id=681
Net.IN[382].id=682
Net.IN[383].id=683
Net.IN[384].id=684
Net.IN[385].id=685
Net.IN[386].id=686
Net.IN[387].id=687
Net.IN[388].id=688
Net.IN[389].id=689
Net.IN[390].id=690
Net.IN[391].id=691
Net.IN[392].id=692
Net.IN[393].id=693
Net.IN[394].id=694
Net.IN[395].id=695
Net.IN[396].id=696
Net.IN[397].id=697
Net.IN[398].id=698
Net.IN[399].id=699
Net.IN[400].id=700
Net.IN[401].id=701
Net.IN[402].id=702
Net.IN[403].id=703
Net.IN[404].id=704
Net.IN[405].id=705
Net.IN[406].id=706
Net.IN[407].id=707
Net.IN[408].id=708
Net.IN[409].id=709
Net.IN[410].id=710
Net.IN[411].id=711
Net.IN[412].id=712
Net.IN[413].id=713
Net.IN[414].id=714
Net.IN[415].id=715
Net.IN[416].id=716
Net.IN[417].id=717
Net.IN[418].id=718
Net.IN[419].id=719
Net.IN[420].id=720
Net.IN[421].id=721
Net.IN[422].id=722
Net.IN[423].id=723
Net.IN[424].id=724
Net.IN[425].id=725
Net.IN[426].id=726
Net.IN[427].id=727
Net.IN[428].id=728
Net.IN[429].id=729
Net.IN[430].id=730
Net.IN[431].id=731
Net.IN[432].id=732
Net.IN[433].id=733
Net.IN[434].id=734
Net.IN[435].id=735
Net.IN[436].id=736
Net.IN[437].id=737
Net.IN[438].id=738
Net.IN[439].id=739
Net.IN[440].id=740
Net.IN[441].id=741
Net.IN[442].id=742
Net.IN[443].id=743
Net.IN[444].id=744
Net.IN[445].id=745
Net.IN[446].id=746
Net.IN[447].id=747
Net.IN[448].id=748
Net.IN[449].id=749
Net.IN[450].id=750
Net.IN[451].id=751
Net.IN[452].id=752
Net.IN[453].id=753
Net.IN[454].id=754
Net.IN[455].id=755
Net.IN[456].id=756
Net.IN[457].id=757
Net.IN[458].id=758
Net.IN[459].id=759
Net.IN[460].id=760
Net.IN[461].id=761
Net.IN[462].id=762
Net.IN[463].id=763
Net.IN[464].id=764
Net.IN[465].id=765
Net.IN[466].id=766
Net.IN[467].id=767
Net.IN[468].id=768
Net.IN[469].id=769
Net.IN[470].id=770
Net.IN[471].id=771
Net.IN[472].id=772
Net.IN[473].id=773
Net.IN[474].id=774
Net.IN[475].id=775
Net.IN[476].id=776
Net.IN[477].id=777
Net.IN[478].id=778
Net.IN[479].id=779
Net.IN[480].id=780
Net.IN[481].id=781
Net.IN[482].id=782
Net.IN[483].id=783
Net.IN[484].id=784
Net.IN[485].id=785
Net.IN[486].id=786
Net.IN[487].id=787
Net.IN[488].id=788
Net.IN[489].id=789
Net.IN[490].id=790
Net.IN[491].id=791
Net.IN[492].id=792
Net.IN[493].id=793
Net.IN[494].id=794
Net.IN[495].id=795
Net.IN[496].id=796
Net.IN[497].id=797
Net.IN[498].id=798
Net.IN[499].id=799
Net.IN[500].id=800
Net.IN[501].id=801
Net.IN[502].id=802
Net.IN[503].id=803
Net.IN[504].id=804
Net.IN[505].id=805
Net.IN[506].id=806
Net.IN[507].id=807
Net.IN[508].id=808
Net.IN[509].id=809
Net.IN[510].id=810
Net.IN[511].id=811
Net.IN[512].id=812
Net.IN[513].id=813
Net.IN[514].id=814
Net.IN[515].id=815
Net.IN[516].id=816
Net.IN[517].id=817
Net.IN[518].id=818
Net.IN[519].id=819
Net.IN[520].id=820
Net.IN[521].id=821
Net.IN[522].id=822
Net.IN[523].id=823
Net.IN[524].id=824
Net.IN[525].id=825
Net.IN[526].id=826
Net.IN[527].id=827
Net.IN[528].id=828
Net.IN[529].id=829
Net.IN[530].id=830
Net.IN[531].id=831
Net.IN[532].id=832
Net.IN[533].id=833
Net.IN[534].id=834
Net.IN[535].id=835
Net.IN[536].id=836
Net.IN[537].id=837
Net.IN[538].id=838
Net.IN[539].id=839
Net.IN[540].id=840
Net.IN[541].id=841
Net.IN[542].id=842
Net.IN[543].id=843
Net.IN[544].id=844
Net.IN[545].id=845
Net.IN[546].id=846
Net.IN[547].id=847
Net.IN[548].id=848
Net.IN[549].id=849
Net.IN[550].id=850
Net.IN[551].id=851
Net.IN[552].id=852
Net.IN[553].id=853
Net.IN[554].id=854
Net.IN[555].id=855
Net.IN[556].id=856
Net.IN[557].id=857
Net.IN[558].id=858
Net.IN[559].id=859
Net.IN[560].id=860
Net.IN[561].id=861
Net.IN[562].id=862
Net.IN[563].id=863
Net.IN[564].id=864
Net.IN[565].id=865
Net.IN[566].id=866
Net.IN[567].id=867
Net.IN[568].id=868
Net.IN[569].id=869
Net.IN[570].id=870
Net.IN[571].id=871
Net.IN[572].id=872
Net.IN[573].id=873
Net.IN[574].id=874
Net.IN[575].id=875
Net.IN[576].id=876
Net.IN[577].id=877
Net.IN[578].id=878
Net.IN[579].id=879
Net.IN[580].id=880
Net.IN[581].id=881
Net.IN[582].id=882
Net.IN[583].id=883
Net.IN[584].id=884
Net.IN[585].id=885
Net.IN[586].id=886
Net.IN[587].id=887
Net.IN[588].id=888
Net.IN[589].id=889
Net.IN[590].id=890
Net.IN[591].id=891
Net.IN[592].id=892
Net.IN[593].id=893
Net.IN[594].id=894
Net.IN[595].id=895
Net.IN[596].id=896
Net.IN[597].id=897
Net.IN[598].id=898
Net.IN[599].id=899
Net.IN[600].id=900
Net.IN[601].id=901
Net.IN[602].id=902
Net.IN[603].id=903
Net.IN[604].id=904
Net.IN[605].id=905
Net.IN[606].id=906
Net.IN[607].id=907
Net.IN[608].id=908
Net.IN[609].id=909
Net.IN[610].id=910
Net.IN[611].id=911
Net.IN[612].id=912
Net.IN[613].id=913
Net.IN[614].id=914
Net.IN[615].id=915
Net.IN[616].id=916
Net.IN[617].id=917
Net.IN[618].id=918
Net.IN[619].id=919
Net.IN[620].id=920
Net.IN[621].id=921
Net.IN[622].id=922
Net.IN[623].id=923
Net.IN[624].id=924
Net.IN[625].id=925
Net.IN[626].id=926
Net.IN[627].id=927
Net.IN[628].id=928
Net.IN[629].id=929
Net.IN[630].id=930
Net.IN[631].id=931
Net.IN[632].id=932
Net.IN[633].id=933
Net.IN[634].id=934
Net.IN[635].id=935
Net.IN[636].id=936
Net.IN[637].id=937
Net.IN[638].id=938
Net.IN[639].id=939
Net.IN[640].id=940
Net.IN[641].id=941
Net.IN[642].id=942
Net.IN[643].id=943
Net.IN[644].id=944
Net.IN[645].id=945
Net.IN[646].id=946
Net.IN[647].id=947
Net.IN[648].id=948
Net.IN[649].id=949
Net.IN[650].id=950
Net.IN[651].id=951
Net.IN[652].id=952
Net.IN[653].id=953
Net.IN[654].id=954
Net.IN[655].id=955
Net.IN[656].id=956
Net.IN[657].id=957
Net.IN[658].id=958
Net.IN[659].id=959
Net.IN[660].id=960
Net.IN[661].id=961
Net.IN[662].id=962
Net.IN[663].id=963
Net.IN[664].id=964
Net.IN[665].id=965
Net.IN[666].id=966
Net.IN[667].id=967
Net.IN[668].id=968
Net.IN[669].id=969
Net.IN[670].id=970
Net.IN[671].id=971
Net.IN[672].id=972
Net.IN[673].id=973
Net.IN[674].id=974
Net.IN[675].id=975
Net.IN[676].id=976
Net.IN[677].id=977
Net.IN[678].id=978
Net.IN[679].id=979
Net.IN[680].id=980
Net.IN[681].id=981
Net.IN[682].id=982
Net.IN[683].id=983
Net.IN[684].id=984
Net.IN[685].id=985
Net.IN[686].id=986
Net.IN[687].id=987
Net.IN[688].id=988
Net.IN[689].id=989
Net.IN[690].id=990
Net.IN[691].id=991
Net.IN[692].id=992
Net.IN[693].id=993
Net.IN[694].id=994
Net.IN[695].id=995
Net.IN[696].id=996
Net.IN[697].id=997
Net.IN[698].id=998
Net.IN[699].id=999
