[General]
network = lora.simulations.Net
sim-time-limit=1000s
Net.WELL[0].id=0
Net.WELL[1].id=1
Net.WELL[2].id=2
Net.WELL[3].id=3
Net.WELL[4].id=4
Net.WELL[5].id=5
Net.WELL[6].id=6
Net.WELL[7].id=7
Net.WELL[8].id=8
Net.WELL[9].id=9
Net.WELL[10].id=10
Net.WELL[11].id=11
Net.WELL[12].id=12
Net.WELL[13].id=13
Net.WELL[14].id=14
Net.WELL[15].id=15
Net.WELL[16].id=16
Net.WELL[17].id=17
Net.WELL[18].id=18
Net.WELL[19].id=19
Net.WELL[20].id=20
Net.WELL[21].id=21
Net.WELL[22].id=22
Net.WELL[23].id=23
Net.WELL[24].id=24
Net.WELL[25].id=25
Net.WELL[26].id=26
Net.WELL[27].id=27
Net.WELL[28].id=28
Net.WELL[29].id=29
Net.WELL[30].id=30
Net.WELL[31].id=31
Net.WELL[32].id=32
Net.WELL[33].id=33
Net.WELL[34].id=34
Net.WELL[35].id=35
Net.WELL[36].id=36
Net.WELL[37].id=37
Net.WELL[38].id=38
Net.WELL[39].id=39
Net.WELL[40].id=40
Net.WELL[41].id=41
Net.WELL[42].id=42
Net.WELL[43].id=43
Net.WELL[44].id=44
Net.WELL[45].id=45
Net.WELL[46].id=46
Net.WELL[47].id=47
Net.WELL[48].id=48
Net.WELL[49].id=49
Net.WELL[50].id=50
Net.WELL[51].id=51
Net.WELL[52].id=52
Net.WELL[53].id=53
Net.WELL[54].id=54
Net.WELL[55].id=55
Net.WELL[56].id=56
Net.WELL[57].id=57
Net.WELL[58].id=58
Net.WELL[59].id=59
Net.WELL[60].id=60
Net.WELL[61].id=61
Net.WELL[62].id=62
Net.WELL[63].id=63
Net.WELL[64].id=64
Net.WELL[65].id=65
Net.WELL[66].id=66
Net.WELL[67].id=67
Net.WELL[68].id=68
Net.WELL[69].id=69
Net.WELL[70].id=70
Net.WELL[71].id=71
Net.WELL[72].id=72
Net.WELL[73].id=73
Net.WELL[74].id=74
Net.WELL[75].id=75
Net.WELL[76].id=76
Net.WELL[77].id=77
Net.WELL[78].id=78
Net.WELL[79].id=79
Net.WELL[80].id=80
Net.WELL[81].id=81
Net.WELL[82].id=82
Net.WELL[83].id=83
Net.WELL[84].id=84
Net.WELL[85].id=85
Net.WELL[86].id=86
Net.WELL[87].id=87
Net.WELL[88].id=88
Net.WELL[89].id=89
Net.WELL[90].id=90
Net.WELL[91].id=91
Net.WELL[92].id=92
Net.WELL[93].id=93
Net.WELL[94].id=94
Net.WELL[95].id=95
Net.WELL[96].id=96
Net.WELL[97].id=97
Net.WELL[98].id=98
Net.WELL[99].id=99
Net.WELL[100].id=100
Net.WELL[101].id=101
Net.WELL[102].id=102
Net.WELL[103].id=103
Net.WELL[104].id=104
Net.WELL[105].id=105
Net.WELL[106].id=106
Net.WELL[107].id=107
Net.WELL[108].id=108
Net.WELL[109].id=109
Net.WELL[110].id=110
Net.WELL[111].id=111
Net.WELL[112].id=112
Net.WELL[113].id=113
Net.WELL[114].id=114
Net.WELL[115].id=115
Net.WELL[116].id=116
Net.WELL[117].id=117
Net.WELL[118].id=118
Net.WELL[119].id=119
Net.WELL[120].id=120
Net.WELL[121].id=121
Net.WELL[122].id=122
Net.WELL[123].id=123
Net.WELL[124].id=124
Net.WELL[125].id=125
Net.WELL[126].id=126
Net.WELL[127].id=127
Net.WELL[128].id=128
Net.WELL[129].id=129
Net.WELL[130].id=130
Net.WELL[131].id=131
Net.WELL[132].id=132
Net.WELL[133].id=133
Net.WELL[134].id=134
Net.WELL[135].id=135
Net.WELL[136].id=136
Net.WELL[137].id=137
Net.WELL[138].id=138
Net.WELL[139].id=139
Net.WELL[140].id=140
Net.WELL[141].id=141
Net.WELL[142].id=142
Net.WELL[143].id=143
Net.WELL[144].id=144
Net.WELL[145].id=145
Net.WELL[146].id=146
Net.WELL[147].id=147
Net.WELL[148].id=148
Net.WELL[149].id=149
Net.WELL[150].id=150
Net.WELL[151].id=151
Net.WELL[152].id=152
Net.WELL[153].id=153
Net.WELL[154].id=154
Net.WELL[155].id=155
Net.WELL[156].id=156
Net.WELL[157].id=157
Net.WELL[158].id=158
Net.WELL[159].id=159
Net.WELL[160].id=160
Net.WELL[161].id=161
Net.WELL[162].id=162
Net.WELL[163].id=163
Net.WELL[164].id=164
Net.WELL[165].id=165
Net.WELL[166].id=166
Net.WELL[167].id=167
Net.WELL[168].id=168
Net.WELL[169].id=169
Net.WELL[170].id=170
Net.WELL[171].id=171
Net.WELL[172].id=172
Net.WELL[173].id=173
Net.WELL[174].id=174
Net.WELL[175].id=175
Net.WELL[176].id=176
Net.WELL[177].id=177
Net.WELL[178].id=178
Net.WELL[179].id=179
Net.WELL[180].id=180
Net.WELL[181].id=181
Net.WELL[182].id=182
Net.WELL[183].id=183
Net.WELL[184].id=184
Net.WELL[185].id=185
Net.WELL[186].id=186
Net.WELL[187].id=187
Net.WELL[188].id=188
Net.WELL[189].id=189
Net.WELL[190].id=190
Net.WELL[191].id=191
Net.WELL[192].id=192
Net.WELL[193].id=193
Net.WELL[194].id=194
Net.WELL[195].id=195
Net.WELL[196].id=196
Net.WELL[197].id=197
Net.WELL[198].id=198
Net.WELL[199].id=199
Net.WELL[200].id=200
Net.WELL[201].id=201
Net.WELL[202].id=202
Net.WELL[203].id=203
Net.WELL[204].id=204
Net.WELL[205].id=205
Net.WELL[206].id=206
Net.WELL[207].id=207
Net.WELL[208].id=208
Net.WELL[209].id=209
Net.WELL[210].id=210
Net.WELL[211].id=211
Net.WELL[212].id=212
Net.WELL[213].id=213
Net.WELL[214].id=214
Net.WELL[215].id=215
Net.WELL[216].id=216
Net.WELL[217].id=217
Net.WELL[218].id=218
Net.WELL[219].id=219
Net.WELL[220].id=220
Net.WELL[221].id=221
Net.WELL[222].id=222
Net.WELL[223].id=223
Net.WELL[224].id=224
Net.WELL[225].id=225
Net.WELL[226].id=226
Net.WELL[227].id=227
Net.WELL[228].id=228
Net.WELL[229].id=229
Net.WELL[230].id=230
Net.WELL[231].id=231
Net.WELL[232].id=232
Net.WELL[233].id=233
Net.WELL[234].id=234
Net.WELL[235].id=235
Net.WELL[236].id=236
Net.WELL[237].id=237
Net.WELL[238].id=238
Net.WELL[239].id=239
Net.WELL[240].id=240
Net.WELL[241].id=241
Net.WELL[242].id=242
Net.WELL[243].id=243
Net.WELL[244].id=244
Net.WELL[245].id=245
Net.WELL[246].id=246
Net.WELL[247].id=247
Net.WELL[248].id=248
Net.WELL[249].id=249
Net.WELL[250].id=250
Net.WELL[251].id=251
Net.WELL[252].id=252
Net.WELL[253].id=253
Net.WELL[254].id=254
Net.WELL[255].id=255
Net.WELL[256].id=256
Net.WELL[257].id=257
Net.WELL[258].id=258
Net.WELL[259].id=259
Net.WELL[260].id=260
Net.WELL[261].id=261
Net.WELL[262].id=262
Net.WELL[263].id=263
Net.WELL[264].id=264
Net.WELL[265].id=265
Net.WELL[266].id=266
Net.WELL[267].id=267
Net.WELL[268].id=268
Net.WELL[269].id=269
Net.WELL[270].id=270
Net.WELL[271].id=271
Net.WELL[272].id=272
Net.WELL[273].id=273
Net.WELL[274].id=274
Net.WELL[275].id=275
Net.WELL[276].id=276
Net.WELL[277].id=277
Net.WELL[278].id=278
Net.WELL[279].id=279
Net.WELL[280].id=280
Net.WELL[281].id=281
Net.WELL[282].id=282
Net.WELL[283].id=283
Net.WELL[284].id=284
Net.WELL[285].id=285
Net.WELL[286].id=286
Net.WELL[287].id=287
Net.WELL[288].id=288
Net.WELL[289].id=289
Net.WELL[290].id=290
Net.WELL[291].id=291
Net.WELL[292].id=292
Net.WELL[293].id=293
Net.WELL[294].id=294
Net.WELL[295].id=295
Net.WELL[296].id=296
Net.WELL[297].id=297
Net.WELL[298].id=298
Net.WELL[299].id=299
Net.WELL[300].id=300
Net.WELL[301].id=301
Net.WELL[302].id=302
Net.WELL[303].id=303
Net.WELL[304].id=304
Net.WELL[305].id=305
Net.WELL[306].id=306
Net.WELL[307].id=307
Net.WELL[308].id=308
Net.WELL[309].id=309
Net.WELL[310].id=310
Net.WELL[311].id=311
Net.WELL[312].id=312
Net.WELL[313].id=313
Net.WELL[314].id=314
Net.WELL[315].id=315
Net.WELL[316].id=316
Net.WELL[317].id=317
Net.WELL[318].id=318
Net.WELL[319].id=319
Net.WELL[320].id=320
Net.WELL[321].id=321
Net.WELL[322].id=322
Net.WELL[323].id=323
Net.WELL[324].id=324
Net.WELL[325].id=325
Net.WELL[326].id=326
Net.WELL[327].id=327
Net.WELL[328].id=328
Net.WELL[329].id=329
Net.WELL[330].id=330
Net.WELL[331].id=331
Net.WELL[332].id=332
Net.WELL[333].id=333
Net.WELL[334].id=334
Net.WELL[335].id=335
Net.WELL[336].id=336
Net.WELL[337].id=337
Net.WELL[338].id=338
Net.WELL[339].id=339
Net.WELL[340].id=340
Net.WELL[341].id=341
Net.WELL[342].id=342
Net.WELL[343].id=343
Net.WELL[344].id=344
Net.WELL[345].id=345
Net.WELL[346].id=346
Net.WELL[347].id=347
Net.WELL[348].id=348
Net.WELL[349].id=349
Net.WELL[350].id=350
Net.WELL[351].id=351
Net.WELL[352].id=352
Net.WELL[353].id=353
Net.WELL[354].id=354
Net.WELL[355].id=355
Net.WELL[356].id=356
Net.WELL[357].id=357
Net.WELL[358].id=358
Net.WELL[359].id=359
Net.WELL[360].id=360
Net.WELL[361].id=361
Net.WELL[362].id=362
Net.WELL[363].id=363
Net.WELL[364].id=364
Net.WELL[365].id=365
Net.WELL[366].id=366
Net.WELL[367].id=367
Net.WELL[368].id=368
Net.WELL[369].id=369
Net.WELL[370].id=370
Net.WELL[371].id=371
Net.WELL[372].id=372
Net.WELL[373].id=373
Net.WELL[374].id=374
Net.WELL[375].id=375
Net.WELL[376].id=376
Net.WELL[377].id=377
Net.WELL[378].id=378
Net.WELL[379].id=379
Net.WELL[380].id=380
Net.WELL[381].id=381
Net.WELL[382].id=382
Net.WELL[383].id=383
Net.WELL[384].id=384
Net.WELL[385].id=385
Net.WELL[386].id=386
Net.WELL[387].id=387
Net.WELL[388].id=388
Net.WELL[389].id=389
Net.WELL[390].id=390
Net.WELL[391].id=391
Net.WELL[392].id=392
Net.WELL[393].id=393
Net.WELL[394].id=394
Net.WELL[395].id=395
Net.WELL[396].id=396
Net.WELL[397].id=397
Net.WELL[398].id=398
Net.WELL[399].id=399
Net.WELL[400].id=400
Net.WELL[401].id=401
Net.WELL[402].id=402
Net.WELL[403].id=403
Net.WELL[404].id=404
Net.WELL[405].id=405
Net.WELL[406].id=406
Net.WELL[407].id=407
Net.WELL[408].id=408
Net.WELL[409].id=409
Net.WELL[410].id=410
Net.WELL[411].id=411
Net.WELL[412].id=412
Net.WELL[413].id=413
Net.WELL[414].id=414
Net.WELL[415].id=415
Net.WELL[416].id=416
Net.WELL[417].id=417
Net.WELL[418].id=418
Net.WELL[419].id=419
Net.WELL[420].id=420
Net.WELL[421].id=421
Net.WELL[422].id=422
Net.WELL[423].id=423
Net.WELL[424].id=424
Net.WELL[425].id=425
Net.WELL[426].id=426
Net.WELL[427].id=427
Net.WELL[428].id=428
Net.WELL[429].id=429
Net.WELL[430].id=430
Net.WELL[431].id=431
Net.WELL[432].id=432
Net.WELL[433].id=433
Net.WELL[434].id=434
Net.WELL[435].id=435
Net.WELL[436].id=436
Net.WELL[437].id=437
Net.WELL[438].id=438
Net.WELL[439].id=439
Net.WELL[440].id=440
Net.WELL[441].id=441
Net.WELL[442].id=442
Net.WELL[443].id=443
Net.WELL[444].id=444
Net.WELL[445].id=445
Net.WELL[446].id=446
Net.WELL[447].id=447
Net.WELL[448].id=448
Net.WELL[449].id=449
Net.WELL[450].id=450
Net.WELL[451].id=451
Net.WELL[452].id=452
Net.WELL[453].id=453
Net.WELL[454].id=454
Net.WELL[455].id=455
Net.WELL[456].id=456
Net.WELL[457].id=457
Net.WELL[458].id=458
Net.WELL[459].id=459
Net.WELL[460].id=460
Net.WELL[461].id=461
Net.WELL[462].id=462
Net.WELL[463].id=463
Net.WELL[464].id=464
Net.WELL[465].id=465
Net.WELL[466].id=466
Net.WELL[467].id=467
Net.WELL[468].id=468
Net.WELL[469].id=469
Net.WELL[470].id=470
Net.WELL[471].id=471
Net.WELL[472].id=472
Net.WELL[473].id=473
Net.WELL[474].id=474
Net.WELL[475].id=475
Net.WELL[476].id=476
Net.WELL[477].id=477
Net.WELL[478].id=478
Net.WELL[479].id=479
Net.WELL[480].id=480
Net.WELL[481].id=481
Net.WELL[482].id=482
Net.WELL[483].id=483
Net.WELL[484].id=484
Net.WELL[485].id=485
Net.WELL[486].id=486
Net.WELL[487].id=487
Net.WELL[488].id=488
Net.WELL[489].id=489
Net.WELL[490].id=490
Net.WELL[491].id=491
Net.WELL[492].id=492
Net.WELL[493].id=493
Net.WELL[494].id=494
Net.WELL[495].id=495
Net.WELL[496].id=496
Net.WELL[497].id=497
Net.WELL[498].id=498
Net.WELL[499].id=499
Net.WELL[500].id=500
Net.WELL[501].id=501
Net.WELL[502].id=502
Net.WELL[503].id=503
Net.WELL[504].id=504
Net.WELL[505].id=505
Net.WELL[506].id=506
Net.WELL[507].id=507
Net.WELL[508].id=508
Net.WELL[509].id=509
Net.WELL[510].id=510
Net.WELL[511].id=511
Net.WELL[512].id=512
Net.WELL[513].id=513
Net.WELL[514].id=514
Net.WELL[515].id=515
Net.WELL[516].id=516
Net.WELL[517].id=517
Net.WELL[518].id=518
Net.WELL[519].id=519
Net.WELL[520].id=520
Net.WELL[521].id=521
Net.WELL[522].id=522
Net.WELL[523].id=523
Net.WELL[524].id=524
Net.WELL[525].id=525
Net.WELL[526].id=526
Net.WELL[527].id=527
Net.WELL[528].id=528
Net.WELL[529].id=529
Net.WELL[530].id=530
Net.WELL[531].id=531
Net.WELL[532].id=532
Net.WELL[533].id=533
Net.WELL[534].id=534
Net.WELL[535].id=535
Net.WELL[536].id=536
Net.WELL[537].id=537
Net.WELL[538].id=538
Net.WELL[539].id=539
Net.WELL[540].id=540
Net.WELL[541].id=541
Net.WELL[542].id=542
Net.WELL[543].id=543
Net.WELL[544].id=544
Net.WELL[545].id=545
Net.WELL[546].id=546
Net.WELL[547].id=547
Net.WELL[548].id=548
Net.WELL[549].id=549
Net.WELL[550].id=550
Net.WELL[551].id=551
Net.WELL[552].id=552
Net.WELL[553].id=553
Net.WELL[554].id=554
Net.WELL[555].id=555
Net.WELL[556].id=556
Net.WELL[557].id=557
Net.WELL[558].id=558
Net.WELL[559].id=559
Net.WELL[560].id=560
Net.WELL[561].id=561
Net.WELL[562].id=562
Net.WELL[563].id=563
Net.WELL[564].id=564
Net.WELL[565].id=565
Net.WELL[566].id=566
Net.WELL[567].id=567
Net.WELL[568].id=568
Net.WELL[569].id=569
Net.WELL[570].id=570
Net.WELL[571].id=571
Net.WELL[572].id=572
Net.WELL[573].id=573
Net.WELL[574].id=574
Net.WELL[575].id=575
Net.WELL[576].id=576
Net.WELL[577].id=577
Net.WELL[578].id=578
Net.WELL[579].id=579
Net.WELL[580].id=580
Net.WELL[581].id=581
Net.WELL[582].id=582
Net.WELL[583].id=583
Net.WELL[584].id=584
Net.WELL[585].id=585
Net.WELL[586].id=586
Net.WELL[587].id=587
Net.WELL[588].id=588
Net.WELL[589].id=589
Net.WELL[590].id=590
Net.WELL[591].id=591
Net.WELL[592].id=592
Net.WELL[593].id=593
Net.WELL[594].id=594
Net.WELL[595].id=595
Net.WELL[596].id=596
Net.WELL[597].id=597
Net.WELL[598].id=598
Net.WELL[599].id=599
Net.WELL[600].id=600
Net.WELL[601].id=601
Net.WELL[602].id=602
Net.WELL[603].id=603
Net.WELL[604].id=604
Net.WELL[605].id=605
Net.WELL[606].id=606
Net.WELL[607].id=607
Net.WELL[608].id=608
Net.WELL[609].id=609
Net.WELL[610].id=610
Net.WELL[611].id=611
Net.WELL[612].id=612
Net.WELL[613].id=613
Net.WELL[614].id=614
Net.WELL[615].id=615
Net.WELL[616].id=616
Net.WELL[617].id=617
Net.WELL[618].id=618
Net.WELL[619].id=619
Net.WELL[620].id=620
Net.WELL[621].id=621
Net.WELL[622].id=622
Net.WELL[623].id=623
Net.WELL[624].id=624
Net.WELL[625].id=625
Net.WELL[626].id=626
Net.WELL[627].id=627
Net.WELL[628].id=628
Net.WELL[629].id=629
Net.WELL[630].id=630
Net.WELL[631].id=631
Net.WELL[632].id=632
Net.WELL[633].id=633
Net.WELL[634].id=634
Net.WELL[635].id=635
Net.WELL[636].id=636
Net.WELL[637].id=637
Net.WELL[638].id=638
Net.WELL[639].id=639
Net.WELL[640].id=640
Net.WELL[641].id=641
Net.WELL[642].id=642
Net.WELL[643].id=643
Net.WELL[644].id=644
Net.WELL[645].id=645
Net.WELL[646].id=646
Net.WELL[647].id=647
Net.WELL[648].id=648
Net.WELL[649].id=649
Net.WELL[650].id=650
Net.WELL[651].id=651
Net.WELL[652].id=652
Net.WELL[653].id=653
Net.WELL[654].id=654
Net.WELL[655].id=655
Net.WELL[656].id=656
Net.WELL[657].id=657
Net.WELL[658].id=658
Net.WELL[659].id=659
Net.WELL[660].id=660
Net.WELL[661].id=661
Net.WELL[662].id=662
Net.WELL[663].id=663
Net.WELL[664].id=664
Net.WELL[665].id=665
Net.WELL[666].id=666
Net.WELL[667].id=667
Net.WELL[668].id=668
Net.WELL[669].id=669
Net.WELL[670].id=670
Net.WELL[671].id=671
Net.WELL[672].id=672
Net.WELL[673].id=673
Net.WELL[674].id=674
Net.WELL[675].id=675
Net.WELL[676].id=676
Net.WELL[677].id=677
Net.WELL[678].id=678
Net.WELL[679].id=679
Net.WELL[680].id=680
Net.WELL[681].id=681
Net.WELL[682].id=682
Net.WELL[683].id=683
Net.WELL[684].id=684
Net.WELL[685].id=685
Net.WELL[686].id=686
Net.WELL[687].id=687
Net.WELL[688].id=688
Net.WELL[689].id=689
Net.WELL[690].id=690
Net.WELL[691].id=691
Net.WELL[692].id=692
Net.WELL[693].id=693
Net.WELL[694].id=694
Net.WELL[695].id=695
Net.WELL[696].id=696
Net.WELL[697].id=697
Net.WELL[698].id=698
Net.WELL[699].id=699
Net.WELL[700].id=700
Net.WELL[701].id=701
Net.WELL[702].id=702
Net.WELL[703].id=703
Net.WELL[704].id=704
Net.WELL[705].id=705
Net.WELL[706].id=706
Net.WELL[707].id=707
Net.WELL[708].id=708
Net.WELL[709].id=709
Net.WELL[710].id=710
Net.WELL[711].id=711
Net.WELL[712].id=712
Net.WELL[713].id=713
Net.WELL[714].id=714
Net.WELL[715].id=715
Net.WELL[716].id=716
Net.WELL[717].id=717
Net.WELL[718].id=718
Net.WELL[719].id=719
Net.WELL[720].id=720
Net.WELL[721].id=721
Net.WELL[722].id=722
Net.WELL[723].id=723
Net.WELL[724].id=724
Net.WELL[725].id=725
Net.WELL[726].id=726
Net.WELL[727].id=727
Net.WELL[728].id=728
Net.WELL[729].id=729
Net.WELL[730].id=730
Net.WELL[731].id=731
Net.WELL[732].id=732
Net.WGW[0].id=733
Net.WGW[1].id=734
Net.WGW[2].id=735
Net.WGW[3].id=736
Net.WGW[4].id=737
Net.WGW[5].id=738
Net.WGW[6].id=739
Net.WGW[7].id=740
Net.WGW[8].id=741
Net.WGW[9].id=742
Net.WGW[10].id=743
Net.WGW[11].id=744
Net.WGW[12].id=745
Net.WGW[13].id=746
Net.WGW[14].id=747
Net.WGW[15].id=748
Net.WGW[16].id=749
Net.WGW[17].id=750
Net.WGW[18].id=751
Net.WGW[19].id=752
Net.WGW[20].id=753
Net.WGW[21].id=754
Net.WGW[22].id=755
Net.WGW[23].id=756
Net.WGW[24].id=757
Net.WGW[25].id=758
Net.WGW[26].id=759
Net.WGW[27].id=760
Net.WGW[28].id=761
Net.WGW[29].id=762
Net.WGW[30].id=763
Net.WGW[31].id=764
Net.WGW[32].id=765
Net.WGW[33].id=766
Net.WGW[34].id=767
Net.WGW[35].id=768
Net.WGW[36].id=769
Net.WGW[37].id=770
Net.WGW[38].id=771
Net.WGW[39].id=772
Net.WGW[40].id=773
Net.WGW[41].id=774
Net.WGW[42].id=775
Net.WGW[43].id=776
Net.WGW[44].id=777
Net.WGW[45].id=778
Net.WGW[46].id=779
Net.WGW[47].id=780
Net.WGW[48].id=781
Net.WGW[49].id=782
Net.WGW[50].id=783
Net.WGW[51].id=784
Net.WGW[52].id=785
Net.WGW[53].id=786
Net.WGW[54].id=787
Net.WGW[55].id=788
Net.WGW[56].id=789
Net.WGW[57].id=790
Net.WGW[58].id=791
Net.WGW[59].id=792
Net.WGW[60].id=793
Net.WGW[61].id=794
Net.WGW[62].id=795
Net.WGW[63].id=796
Net.WGW[64].id=797
Net.WGW[65].id=798
Net.WGW[66].id=799
Net.WGW[67].id=800
Net.WGW[68].id=801
Net.WGW[69].id=802
Net.WGW[70].id=803
Net.WGW[71].id=804
Net.WGW[72].id=805
Net.WGW[73].id=806
Net.WGW[74].id=807
Net.WGW[75].id=808
Net.WGW[76].id=809
Net.WGW[77].id=810
Net.WGW[78].id=811
Net.WGW[79].id=812
Net.WGW[80].id=813
Net.IN[0].id=814
Net.IN[1].id=815
Net.IN[2].id=816
Net.IN[3].id=817
Net.IN[4].id=818
Net.IN[5].id=819
Net.IN[6].id=820
Net.IN[7].id=821
Net.IN[8].id=822
Net.IN[9].id=823
Net.IN[10].id=824
Net.IN[11].id=825
Net.IN[12].id=826
Net.IN[13].id=827
Net.IN[14].id=828
Net.IN[15].id=829
Net.IN[16].id=830
Net.IN[17].id=831
Net.IN[18].id=832
Net.IN[19].id=833
Net.IN[20].id=834
Net.IN[21].id=835
Net.IN[22].id=836
Net.IN[23].id=837
Net.IN[24].id=838
Net.IN[25].id=839
Net.IN[26].id=840
Net.IN[27].id=841
Net.IN[28].id=842
Net.IN[29].id=843
Net.IN[30].id=844
Net.IN[31].id=845
Net.IN[32].id=846
Net.IN[33].id=847
Net.IN[34].id=848
Net.IN[35].id=849
Net.IN[36].id=850
Net.IN[37].id=851
Net.IN[38].id=852
Net.IN[39].id=853
Net.IN[40].id=854
Net.IN[41].id=855
Net.IN[42].id=856
Net.IN[43].id=857
Net.IN[44].id=858
Net.IN[45].id=859
Net.IN[46].id=860
Net.IN[47].id=861
Net.IN[48].id=862
Net.IN[49].id=863
Net.IN[50].id=864
Net.IN[51].id=865
Net.IN[52].id=866
Net.IN[53].id=867
Net.IN[54].id=868
Net.IN[55].id=869
Net.IN[56].id=870
Net.IN[57].id=871
Net.IN[58].id=872
Net.IN[59].id=873
Net.IN[60].id=874
Net.IN[61].id=875
Net.IN[62].id=876
Net.IN[63].id=877
Net.IN[64].id=878
Net.IN[65].id=879
Net.IN[66].id=880
Net.IN[67].id=881
Net.IN[68].id=882
Net.IN[69].id=883
Net.IN[70].id=884
Net.IN[71].id=885
Net.IN[72].id=886
Net.IN[73].id=887
Net.IN[74].id=888
Net.IN[75].id=889
Net.IN[76].id=890
Net.IN[77].id=891
Net.IN[78].id=892
Net.IN[79].id=893
Net.IN[80].id=894
Net.IN[81].id=895
Net.IN[82].id=896
Net.IN[83].id=897
Net.IN[84].id=898
Net.IN[85].id=899
Net.IN[86].id=900
Net.IN[87].id=901
Net.IN[88].id=902
Net.IN[89].id=903
Net.IN[90].id=904
Net.IN[91].id=905
Net.IN[92].id=906
Net.IN[93].id=907
Net.IN[94].id=908
Net.IN[95].id=909
Net.IN[96].id=910
Net.IN[97].id=911
Net.IN[98].id=912
Net.IN[99].id=913
Net.IN[100].id=914
Net.IN[101].id=915
Net.IN[102].id=916
Net.IN[103].id=917
Net.IN[104].id=918
Net.IN[105].id=919
Net.IN[106].id=920
Net.IN[107].id=921
Net.IN[108].id=922
Net.IN[109].id=923
Net.IN[110].id=924
Net.IN[111].id=925
Net.IN[112].id=926
Net.IN[113].id=927
Net.IN[114].id=928
Net.IN[115].id=929
Net.IN[116].id=930
Net.IN[117].id=931
Net.IN[118].id=932
Net.IN[119].id=933
Net.IN[120].id=934
Net.IN[121].id=935
Net.IN[122].id=936
Net.IN[123].id=937
Net.IN[124].id=938
Net.IN[125].id=939
Net.IN[126].id=940
Net.IN[127].id=941
Net.IN[128].id=942
Net.IN[129].id=943
Net.IN[130].id=944
Net.IN[131].id=945
Net.IN[132].id=946
Net.IN[133].id=947
Net.IN[134].id=948
Net.IN[135].id=949
Net.IN[136].id=950
Net.IN[137].id=951
Net.IN[138].id=952
Net.IN[139].id=953
Net.IN[140].id=954
Net.IN[141].id=955
Net.IN[142].id=956
Net.IN[143].id=957
Net.IN[144].id=958
Net.IN[145].id=959
Net.IN[146].id=960
Net.IN[147].id=961
Net.IN[148].id=962
Net.IN[149].id=963
Net.IN[150].id=964
Net.IN[151].id=965
Net.IN[152].id=966
Net.IN[153].id=967
Net.IN[154].id=968
Net.IN[155].id=969
Net.IN[156].id=970
Net.IN[157].id=971
Net.IN[158].id=972
Net.IN[159].id=973
Net.IN[160].id=974
Net.IN[161].id=975
Net.IN[162].id=976
Net.IN[163].id=977
Net.IN[164].id=978
Net.IN[165].id=979
Net.IN[166].id=980
Net.IN[167].id=981
Net.IN[168].id=982
Net.IN[169].id=983
Net.IN[170].id=984
Net.IN[171].id=985
Net.IN[172].id=986
Net.IN[173].id=987
Net.IN[174].id=988
Net.IN[175].id=989
Net.IN[176].id=990
Net.IN[177].id=991
Net.IN[178].id=992
Net.IN[179].id=993
Net.IN[180].id=994
Net.IN[181].id=995
Net.IN[182].id=996
Net.IN[183].id=997
Net.IN[184].id=998
Net.IN[185].id=999
