[General]
network = lora.simulations.Net
sim-time-limit=1000s
Net.WELL[0].id=0
Net.WELL[1].id=1
Net.WELL[2].id=2
Net.WELL[3].id=3
Net.WELL[4].id=4
Net.WELL[5].id=5
Net.WELL[6].id=6
Net.WELL[7].id=7
Net.WELL[8].id=8
Net.WELL[9].id=9
Net.WELL[10].id=10
Net.WELL[11].id=11
Net.WELL[12].id=12
Net.WELL[13].id=13
Net.WELL[14].id=14
Net.WELL[15].id=15
Net.WELL[16].id=16
Net.WELL[17].id=17
Net.WELL[18].id=18
Net.WELL[19].id=19
Net.WELL[20].id=20
Net.WELL[21].id=21
Net.WELL[22].id=22
Net.WELL[23].id=23
Net.WELL[24].id=24
Net.WELL[25].id=25
Net.WELL[26].id=26
Net.WELL[27].id=27
Net.WELL[28].id=28
Net.WELL[29].id=29
Net.WELL[30].id=30
Net.WELL[31].id=31
Net.WELL[32].id=32
Net.WELL[33].id=33
Net.WELL[34].id=34
Net.WELL[35].id=35
Net.WELL[36].id=36
Net.WELL[37].id=37
Net.WELL[38].id=38
Net.WELL[39].id=39
Net.WELL[40].id=40
Net.WELL[41].id=41
Net.WELL[42].id=42
Net.WELL[43].id=43
Net.WELL[44].id=44
Net.WELL[45].id=45
Net.WELL[46].id=46
Net.WELL[47].id=47
Net.WELL[48].id=48
Net.WELL[49].id=49
Net.WELL[50].id=50
Net.WELL[51].id=51
Net.WELL[52].id=52
Net.WELL[53].id=53
Net.WELL[54].id=54
Net.WELL[55].id=55
Net.WELL[56].id=56
Net.WELL[57].id=57
Net.WELL[58].id=58
Net.WELL[59].id=59
Net.WELL[60].id=60
Net.WELL[61].id=61
Net.WELL[62].id=62
Net.WELL[63].id=63
Net.WELL[64].id=64
Net.WELL[65].id=65
Net.WELL[66].id=66
Net.WELL[67].id=67
Net.WELL[68].id=68
Net.WELL[69].id=69
Net.WELL[70].id=70
Net.WELL[71].id=71
Net.WELL[72].id=72
Net.WELL[73].id=73
Net.WELL[74].id=74
Net.WELL[75].id=75
Net.WELL[76].id=76
Net.WELL[77].id=77
Net.WELL[78].id=78
Net.WELL[79].id=79
Net.WELL[80].id=80
Net.WELL[81].id=81
Net.WELL[82].id=82
Net.WELL[83].id=83
Net.WELL[84].id=84
Net.WELL[85].id=85
Net.WELL[86].id=86
Net.WELL[87].id=87
Net.WELL[88].id=88
Net.WELL[89].id=89
Net.WELL[90].id=90
Net.WELL[91].id=91
Net.WELL[92].id=92
Net.WELL[93].id=93
Net.WELL[94].id=94
Net.WELL[95].id=95
Net.WELL[96].id=96
Net.WELL[97].id=97
Net.WELL[98].id=98
Net.WELL[99].id=99
Net.WELL[100].id=100
Net.WELL[101].id=101
Net.WELL[102].id=102
Net.WELL[103].id=103
Net.WELL[104].id=104
Net.WELL[105].id=105
Net.WELL[106].id=106
Net.WELL[107].id=107
Net.WELL[108].id=108
Net.WELL[109].id=109
Net.WELL[110].id=110
Net.WELL[111].id=111
Net.WELL[112].id=112
Net.WELL[113].id=113
Net.WELL[114].id=114
Net.WELL[115].id=115
Net.WELL[116].id=116
Net.WELL[117].id=117
Net.WELL[118].id=118
Net.WELL[119].id=119
Net.WELL[120].id=120
Net.WELL[121].id=121
Net.WELL[122].id=122
Net.WELL[123].id=123
Net.WELL[124].id=124
Net.WELL[125].id=125
Net.WELL[126].id=126
Net.WELL[127].id=127
Net.WELL[128].id=128
Net.WELL[129].id=129
Net.WELL[130].id=130
Net.WELL[131].id=131
Net.WELL[132].id=132
Net.WELL[133].id=133
Net.WELL[134].id=134
Net.WELL[135].id=135
Net.WELL[136].id=136
Net.WELL[137].id=137
Net.WELL[138].id=138
Net.WELL[139].id=139
Net.WELL[140].id=140
Net.WELL[141].id=141
Net.WELL[142].id=142
Net.WELL[143].id=143
Net.WELL[144].id=144
Net.WELL[145].id=145
Net.WELL[146].id=146
Net.WELL[147].id=147
Net.WELL[148].id=148
Net.WELL[149].id=149
Net.WELL[150].id=150
Net.WELL[151].id=151
Net.WELL[152].id=152
Net.WELL[153].id=153
Net.WELL[154].id=154
Net.WELL[155].id=155
Net.WELL[156].id=156
Net.WELL[157].id=157
Net.WELL[158].id=158
Net.WELL[159].id=159
Net.WELL[160].id=160
Net.WELL[161].id=161
Net.WELL[162].id=162
Net.WELL[163].id=163
Net.WELL[164].id=164
Net.WELL[165].id=165
Net.WELL[166].id=166
Net.WELL[167].id=167
Net.WELL[168].id=168
Net.WELL[169].id=169
Net.WELL[170].id=170
Net.WELL[171].id=171
Net.WELL[172].id=172
Net.WELL[173].id=173
Net.WELL[174].id=174
Net.WELL[175].id=175
Net.WELL[176].id=176
Net.WELL[177].id=177
Net.WELL[178].id=178
Net.WELL[179].id=179
Net.WELL[180].id=180
Net.WELL[181].id=181
Net.WELL[182].id=182
Net.WELL[183].id=183
Net.WELL[184].id=184
Net.WELL[185].id=185
Net.WELL[186].id=186
Net.WELL[187].id=187
Net.WELL[188].id=188
Net.WELL[189].id=189
Net.WELL[190].id=190
Net.WELL[191].id=191
Net.WELL[192].id=192
Net.WELL[193].id=193
Net.WELL[194].id=194
Net.WELL[195].id=195
Net.WELL[196].id=196
Net.WELL[197].id=197
Net.WELL[198].id=198
Net.WELL[199].id=199
Net.WELL[200].id=200
Net.WGW[0].id=201
Net.WGW[1].id=202
Net.WGW[2].id=203
Net.WGW[3].id=204
Net.WGW[4].id=205
Net.WGW[5].id=206
Net.WGW[6].id=207
Net.WGW[7].id=208
Net.WGW[8].id=209
Net.WGW[9].id=210
Net.WGW[10].id=211
Net.WGW[11].id=212
Net.WGW[12].id=213
Net.WGW[13].id=214
Net.WGW[14].id=215
Net.WGW[15].id=216
Net.WGW[16].id=217
Net.WGW[17].id=218
Net.WGW[18].id=219
Net.WGW[19].id=220
Net.WGW[20].id=221
Net.WGW[21].id=222
Net.WGW[22].id=223
Net.WGW[23].id=224
Net.WGW[24].id=225
Net.WGW[25].id=226
Net.WGW[26].id=227
Net.WGW[27].id=228
Net.WGW[28].id=229
Net.WGW[29].id=230
Net.WGW[30].id=231
Net.WGW[31].id=232
Net.WGW[32].id=233
Net.WGW[33].id=234
Net.WGW[34].id=235
Net.WGW[35].id=236
Net.WGW[36].id=237
Net.WGW[37].id=238
Net.WGW[38].id=239
Net.WGW[39].id=240
Net.WGW[40].id=241
Net.WGW[41].id=242
Net.WGW[42].id=243
Net.WGW[43].id=244
Net.WGW[44].id=245
Net.WGW[45].id=246
Net.WGW[46].id=247
Net.WGW[47].id=248
Net.WGW[48].id=249
Net.WGW[49].id=250
Net.WGW[50].id=251
Net.WGW[51].id=252
Net.WGW[52].id=253
Net.WGW[53].id=254
Net.WGW[54].id=255
Net.WGW[55].id=256
Net.WGW[56].id=257
Net.WGW[57].id=258
Net.WGW[58].id=259
Net.WGW[59].id=260
Net.WGW[60].id=261
Net.WGW[61].id=262
Net.WGW[62].id=263
Net.WGW[63].id=264
Net.WGW[64].id=265
Net.WGW[65].id=266
Net.WGW[66].id=267
Net.WGW[67].id=268
Net.WGW[68].id=269
Net.WGW[69].id=270
Net.WGW[70].id=271
Net.WGW[71].id=272
Net.WGW[72].id=273
Net.WGW[73].id=274
Net.WGW[74].id=275
Net.WGW[75].id=276
Net.WGW[76].id=277
Net.WGW[77].id=278
Net.WGW[78].id=279
Net.WGW[79].id=280
Net.WGW[80].id=281
Net.WGW[81].id=282
Net.WGW[82].id=283
Net.WGW[83].id=284
Net.WGW[84].id=285
Net.WGW[85].id=286
Net.WGW[86].id=287
Net.WGW[87].id=288
Net.WGW[88].id=289
Net.WGW[89].id=290
Net.WGW[90].id=291
Net.WGW[91].id=292
Net.WGW[92].id=293
Net.WGW[93].id=294
Net.WGW[94].id=295
Net.WGW[95].id=296
Net.WGW[96].id=297
Net.WGW[97].id=298
Net.WGW[98].id=299
Net.WGW[99].id=300
Net.WGW[100].id=301
Net.WGW[101].id=302
Net.WGW[102].id=303
Net.WGW[103].id=304
Net.WGW[104].id=305
Net.WGW[105].id=306
Net.WGW[106].id=307
Net.WGW[107].id=308
Net.WGW[108].id=309
Net.WGW[109].id=310
Net.WGW[110].id=311
Net.WGW[111].id=312
Net.WGW[112].id=313
Net.WGW[113].id=314
Net.WGW[114].id=315
Net.WGW[115].id=316
Net.WGW[116].id=317
Net.WGW[117].id=318
Net.WGW[118].id=319
Net.WGW[119].id=320
Net.WGW[120].id=321
Net.WGW[121].id=322
Net.WGW[122].id=323
Net.WGW[123].id=324
Net.WGW[124].id=325
Net.WGW[125].id=326
Net.WGW[126].id=327
Net.WGW[127].id=328
Net.WGW[128].id=329
Net.WGW[129].id=330
Net.WGW[130].id=331
Net.WGW[131].id=332
Net.WGW[132].id=333
Net.WGW[133].id=334
Net.WGW[134].id=335
Net.WGW[135].id=336
Net.WGW[136].id=337
Net.WGW[137].id=338
Net.WGW[138].id=339
Net.WGW[139].id=340
Net.WGW[140].id=341
Net.WGW[141].id=342
Net.WGW[142].id=343
Net.WGW[143].id=344
Net.WGW[144].id=345
Net.WGW[145].id=346
Net.WGW[146].id=347
Net.WGW[147].id=348
Net.WGW[148].id=349
Net.WGW[149].id=350
Net.WGW[150].id=351
Net.WGW[151].id=352
Net.WGW[152].id=353
Net.WGW[153].id=354
Net.WGW[154].id=355
Net.WGW[155].id=356
Net.WGW[156].id=357
Net.WGW[157].id=358
Net.WGW[158].id=359
Net.WGW[159].id=360
Net.WGW[160].id=361
Net.WGW[161].id=362
Net.WGW[162].id=363
Net.WGW[163].id=364
Net.WGW[164].id=365
Net.WGW[165].id=366
Net.WGW[166].id=367
Net.WGW[167].id=368
Net.WGW[168].id=369
Net.WGW[169].id=370
Net.WGW[170].id=371
Net.WGW[171].id=372
Net.WGW[172].id=373
Net.WGW[173].id=374
Net.WGW[174].id=375
Net.WGW[175].id=376
Net.WGW[176].id=377
Net.WGW[177].id=378
Net.WGW[178].id=379
Net.WGW[179].id=380
Net.WGW[180].id=381
Net.WGW[181].id=382
Net.WGW[182].id=383
Net.WGW[183].id=384
Net.WGW[184].id=385
Net.WGW[185].id=386
Net.WGW[186].id=387
Net.WGW[187].id=388
Net.WGW[188].id=389
Net.WGW[189].id=390
Net.WGW[190].id=391
Net.WGW[191].id=392
Net.WGW[192].id=393
Net.WGW[193].id=394
Net.WGW[194].id=395
Net.WGW[195].id=396
Net.WGW[196].id=397
Net.WGW[197].id=398
Net.WGW[198].id=399
Net.WGW[199].id=400
Net.WGW[200].id=401
Net.WGW[201].id=402
Net.WGW[202].id=403
Net.WGW[203].id=404
Net.WGW[204].id=405
Net.WGW[205].id=406
Net.WGW[206].id=407
Net.WGW[207].id=408
Net.WGW[208].id=409
Net.WGW[209].id=410
Net.WGW[210].id=411
Net.WGW[211].id=412
Net.WGW[212].id=413
Net.WGW[213].id=414
Net.WGW[214].id=415
Net.WGW[215].id=416
Net.WGW[216].id=417
Net.WGW[217].id=418
Net.WGW[218].id=419
Net.WGW[219].id=420
Net.WGW[220].id=421
Net.WGW[221].id=422
Net.WGW[222].id=423
Net.WGW[223].id=424
Net.WGW[224].id=425
Net.WGW[225].id=426
Net.WGW[226].id=427
Net.WGW[227].id=428
Net.WGW[228].id=429
Net.WGW[229].id=430
Net.WGW[230].id=431
Net.WGW[231].id=432
Net.WGW[232].id=433
Net.WGW[233].id=434
Net.WGW[234].id=435
Net.WGW[235].id=436
Net.WGW[236].id=437
Net.WGW[237].id=438
Net.WGW[238].id=439
Net.WGW[239].id=440
Net.WGW[240].id=441
Net.WGW[241].id=442
Net.WGW[242].id=443
Net.WGW[243].id=444
Net.WGW[244].id=445
Net.WGW[245].id=446
Net.WGW[246].id=447
Net.WGW[247].id=448
Net.WGW[248].id=449
Net.WGW[249].id=450
Net.WGW[250].id=451
Net.WGW[251].id=452
Net.WGW[252].id=453
Net.WGW[253].id=454
Net.WGW[254].id=455
Net.WGW[255].id=456
Net.WGW[256].id=457
Net.WGW[257].id=458
Net.WGW[258].id=459
Net.WGW[259].id=460
Net.WGW[260].id=461
Net.WGW[261].id=462
Net.WGW[262].id=463
Net.WGW[263].id=464
Net.WGW[264].id=465
Net.WGW[265].id=466
Net.WGW[266].id=467
Net.WGW[267].id=468
Net.WGW[268].id=469
Net.WGW[269].id=470
Net.WGW[270].id=471
Net.WGW[271].id=472
Net.WGW[272].id=473
Net.WGW[273].id=474
Net.WGW[274].id=475
Net.WGW[275].id=476
Net.WGW[276].id=477
Net.WGW[277].id=478
Net.WGW[278].id=479
Net.WGW[279].id=480
Net.WGW[280].id=481
Net.WGW[281].id=482
Net.WGW[282].id=483
Net.WGW[283].id=484
Net.WGW[284].id=485
Net.WGW[285].id=486
Net.WGW[286].id=487
Net.WGW[287].id=488
Net.WGW[288].id=489
Net.WGW[289].id=490
Net.WGW[290].id=491
Net.WGW[291].id=492
Net.WGW[292].id=493
Net.WGW[293].id=494
Net.WGW[294].id=495
Net.WGW[295].id=496
Net.WGW[296].id=497
Net.WGW[297].id=498
Net.WGW[298].id=499
Net.WGW[299].id=500
Net.WGW[300].id=501
Net.WGW[301].id=502
Net.WGW[302].id=503
Net.WGW[303].id=504
Net.WGW[304].id=505
Net.WGW[305].id=506
Net.WGW[306].id=507
Net.WGW[307].id=508
Net.WGW[308].id=509
Net.WGW[309].id=510
Net.WGW[310].id=511
Net.WGW[311].id=512
Net.WGW[312].id=513
Net.WGW[313].id=514
Net.WGW[314].id=515
Net.WGW[315].id=516
Net.WGW[316].id=517
Net.WGW[317].id=518
Net.WGW[318].id=519
Net.WGW[319].id=520
Net.WGW[320].id=521
Net.WGW[321].id=522
Net.WGW[322].id=523
Net.WGW[323].id=524
Net.WGW[324].id=525
Net.WGW[325].id=526
Net.WGW[326].id=527
Net.WGW[327].id=528
Net.WGW[328].id=529
Net.WGW[329].id=530
Net.WGW[330].id=531
Net.WGW[331].id=532
Net.WGW[332].id=533
Net.WGW[333].id=534
Net.WGW[334].id=535
Net.WGW[335].id=536
Net.WGW[336].id=537
Net.WGW[337].id=538
Net.WGW[338].id=539
Net.WGW[339].id=540
Net.WGW[340].id=541
Net.WGW[341].id=542
Net.WGW[342].id=543
Net.WGW[343].id=544
Net.WGW[344].id=545
Net.WGW[345].id=546
Net.WGW[346].id=547
Net.WGW[347].id=548
Net.WGW[348].id=549
Net.WGW[349].id=550
Net.WGW[350].id=551
Net.WGW[351].id=552
Net.WGW[352].id=553
Net.WGW[353].id=554
Net.WGW[354].id=555
Net.WGW[355].id=556
Net.WGW[356].id=557
Net.WGW[357].id=558
Net.WGW[358].id=559
Net.WGW[359].id=560
Net.WGW[360].id=561
Net.WGW[361].id=562
Net.WGW[362].id=563
Net.WGW[363].id=564
Net.WGW[364].id=565
Net.WGW[365].id=566
Net.WGW[366].id=567
Net.WGW[367].id=568
Net.WGW[368].id=569
Net.WGW[369].id=570
Net.WGW[370].id=571
Net.WGW[371].id=572
Net.WGW[372].id=573
Net.WGW[373].id=574
Net.WGW[374].id=575
Net.WGW[375].id=576
Net.WGW[376].id=577
Net.WGW[377].id=578
Net.WGW[378].id=579
Net.WGW[379].id=580
Net.WGW[380].id=581
Net.WGW[381].id=582
Net.WGW[382].id=583
Net.WGW[383].id=584
Net.WGW[384].id=585
Net.WGW[385].id=586
Net.WGW[386].id=587
Net.WGW[387].id=588
Net.WGW[388].id=589
Net.WGW[389].id=590
Net.WGW[390].id=591
Net.WGW[391].id=592
Net.WGW[392].id=593
Net.WGW[393].id=594
Net.WGW[394].id=595
Net.WGW[395].id=596
Net.WGW[396].id=597
Net.WGW[397].id=598
Net.WGW[398].id=599
Net.WGW[399].id=600
Net.WGW[400].id=601
Net.WGW[401].id=602
Net.WGW[402].id=603
Net.WGW[403].id=604
Net.WGW[404].id=605
Net.WGW[405].id=606
Net.WGW[406].id=607
Net.WGW[407].id=608
Net.WGW[408].id=609
Net.WGW[409].id=610
Net.WGW[410].id=611
Net.WGW[411].id=612
Net.WGW[412].id=613
Net.WGW[413].id=614
Net.WGW[414].id=615
Net.WGW[415].id=616
Net.WGW[416].id=617
Net.WGW[417].id=618
Net.WGW[418].id=619
Net.WGW[419].id=620
Net.WGW[420].id=621
Net.WGW[421].id=622
Net.WGW[422].id=623
Net.WGW[423].id=624
Net.WGW[424].id=625
Net.WGW[425].id=626
Net.WGW[426].id=627
Net.WGW[427].id=628
Net.WGW[428].id=629
Net.WGW[429].id=630
Net.WGW[430].id=631
Net.WGW[431].id=632
Net.WGW[432].id=633
Net.WGW[433].id=634
Net.WGW[434].id=635
Net.WGW[435].id=636
Net.WGW[436].id=637
Net.WGW[437].id=638
Net.WGW[438].id=639
Net.WGW[439].id=640
Net.WGW[440].id=641
Net.WGW[441].id=642
Net.WGW[442].id=643
Net.WGW[443].id=644
Net.WGW[444].id=645
Net.WGW[445].id=646
Net.WGW[446].id=647
Net.WGW[447].id=648
Net.WGW[448].id=649
Net.WGW[449].id=650
Net.WGW[450].id=651
Net.WGW[451].id=652
Net.WGW[452].id=653
Net.WGW[453].id=654
Net.WGW[454].id=655
Net.WGW[455].id=656
Net.WGW[456].id=657
Net.WGW[457].id=658
Net.WGW[458].id=659
Net.WGW[459].id=660
Net.WGW[460].id=661
Net.WGW[461].id=662
Net.WGW[462].id=663
Net.WGW[463].id=664
Net.WGW[464].id=665
Net.WGW[465].id=666
Net.WGW[466].id=667
Net.WGW[467].id=668
Net.WGW[468].id=669
Net.WGW[469].id=670
Net.WGW[470].id=671
Net.WGW[471].id=672
Net.WGW[472].id=673
Net.WGW[473].id=674
Net.WGW[474].id=675
Net.WGW[475].id=676
Net.WGW[476].id=677
Net.WGW[477].id=678
Net.WGW[478].id=679
Net.WGW[479].id=680
Net.WGW[480].id=681
Net.WGW[481].id=682
Net.WGW[482].id=683
Net.WGW[483].id=684
Net.WGW[484].id=685
Net.WGW[485].id=686
Net.WGW[486].id=687
Net.WGW[487].id=688
Net.WGW[488].id=689
Net.WGW[489].id=690
Net.WGW[490].id=691
Net.WGW[491].id=692
Net.WGW[492].id=693
Net.WGW[493].id=694
Net.WGW[494].id=695
Net.WGW[495].id=696
Net.WGW[496].id=697
Net.WGW[497].id=698
Net.WGW[498].id=699
Net.WGW[499].id=700
Net.WGW[500].id=701
Net.WGW[501].id=702
Net.WGW[502].id=703
Net.WGW[503].id=704
Net.WGW[504].id=705
Net.WGW[505].id=706
Net.WGW[506].id=707
Net.WGW[507].id=708
Net.WGW[508].id=709
Net.WGW[509].id=710
Net.WGW[510].id=711
Net.WGW[511].id=712
Net.WGW[512].id=713
Net.WGW[513].id=714
Net.WGW[514].id=715
Net.WGW[515].id=716
Net.WGW[516].id=717
Net.WGW[517].id=718
Net.WGW[518].id=719
Net.WGW[519].id=720
Net.WGW[520].id=721
Net.WGW[521].id=722
Net.WGW[522].id=723
Net.WGW[523].id=724
Net.WGW[524].id=725
Net.WGW[525].id=726
Net.WGW[526].id=727
Net.WGW[527].id=728
Net.WGW[528].id=729
Net.WGW[529].id=730
Net.WGW[530].id=731
Net.WGW[531].id=732
Net.WGW[532].id=733
Net.WGW[533].id=734
Net.WGW[534].id=735
Net.WGW[535].id=736
Net.WGW[536].id=737
Net.WGW[537].id=738
Net.WGW[538].id=739
Net.WGW[539].id=740
Net.WGW[540].id=741
Net.WGW[541].id=742
Net.WGW[542].id=743
Net.WGW[543].id=744
Net.WGW[544].id=745
Net.WGW[545].id=746
Net.WGW[546].id=747
Net.WGW[547].id=748
Net.WGW[548].id=749
Net.WGW[549].id=750
Net.WGW[550].id=751
Net.WGW[551].id=752
Net.WGW[552].id=753
Net.WGW[553].id=754
Net.WGW[554].id=755
Net.WGW[555].id=756
Net.WGW[556].id=757
Net.WGW[557].id=758
Net.WGW[558].id=759
Net.WGW[559].id=760
Net.WGW[560].id=761
Net.WGW[561].id=762
Net.WGW[562].id=763
Net.WGW[563].id=764
Net.WGW[564].id=765
Net.WGW[565].id=766
Net.WGW[566].id=767
Net.WGW[567].id=768
Net.WGW[568].id=769
Net.WGW[569].id=770
Net.WGW[570].id=771
Net.WGW[571].id=772
Net.WGW[572].id=773
Net.WGW[573].id=774
Net.WGW[574].id=775
Net.WGW[575].id=776
Net.WGW[576].id=777
Net.WGW[577].id=778
Net.WGW[578].id=779
Net.WGW[579].id=780
Net.WGW[580].id=781
Net.WGW[581].id=782
Net.WGW[582].id=783
Net.WGW[583].id=784
Net.WGW[584].id=785
Net.WGW[585].id=786
Net.WGW[586].id=787
Net.WGW[587].id=788
Net.WGW[588].id=789
Net.WGW[589].id=790
Net.WGW[590].id=791
Net.WGW[591].id=792
Net.WGW[592].id=793
Net.WGW[593].id=794
Net.WGW[594].id=795
Net.WGW[595].id=796
Net.WGW[596].id=797
Net.WGW[597].id=798
Net.WGW[598].id=799
Net.WGW[599].id=800
Net.WGW[600].id=801
Net.WGW[601].id=802
Net.WGW[602].id=803
Net.WGW[603].id=804
Net.WGW[604].id=805
Net.WGW[605].id=806
Net.WGW[606].id=807
Net.WGW[607].id=808
Net.WGW[608].id=809
Net.WGW[609].id=810
Net.WGW[610].id=811
Net.WGW[611].id=812
Net.WGW[612].id=813
Net.WGW[613].id=814
Net.WGW[614].id=815
Net.WGW[615].id=816
Net.WGW[616].id=817
Net.WGW[617].id=818
Net.WGW[618].id=819
Net.WGW[619].id=820
Net.WGW[620].id=821
Net.WGW[621].id=822
Net.WGW[622].id=823
Net.WGW[623].id=824
Net.WGW[624].id=825
Net.WGW[625].id=826
Net.WGW[626].id=827
Net.WGW[627].id=828
Net.WGW[628].id=829
Net.WGW[629].id=830
Net.WGW[630].id=831
Net.WGW[631].id=832
Net.WGW[632].id=833
Net.WGW[633].id=834
Net.WGW[634].id=835
Net.WGW[635].id=836
Net.WGW[636].id=837
Net.WGW[637].id=838
Net.WGW[638].id=839
Net.WGW[639].id=840
Net.WGW[640].id=841
Net.WGW[641].id=842
Net.WGW[642].id=843
Net.WGW[643].id=844
Net.WGW[644].id=845
Net.WGW[645].id=846
Net.WGW[646].id=847
Net.WGW[647].id=848
Net.WGW[648].id=849
Net.WGW[649].id=850
Net.WGW[650].id=851
Net.WGW[651].id=852
Net.WGW[652].id=853
Net.WGW[653].id=854
Net.WGW[654].id=855
Net.WGW[655].id=856
Net.WGW[656].id=857
Net.WGW[657].id=858
Net.WGW[658].id=859
Net.WGW[659].id=860
Net.WGW[660].id=861
Net.WGW[661].id=862
Net.WGW[662].id=863
Net.WGW[663].id=864
Net.WGW[664].id=865
Net.WGW[665].id=866
Net.WGW[666].id=867
Net.WGW[667].id=868
Net.WGW[668].id=869
Net.WGW[669].id=870
Net.WGW[670].id=871
Net.WGW[671].id=872
Net.WGW[672].id=873
Net.WGW[673].id=874
Net.WGW[674].id=875
Net.WGW[675].id=876
Net.WGW[676].id=877
Net.WGW[677].id=878
Net.WGW[678].id=879
Net.WGW[679].id=880
Net.WGW[680].id=881
Net.WGW[681].id=882
Net.WGW[682].id=883
Net.WGW[683].id=884
Net.WGW[684].id=885
Net.WGW[685].id=886
Net.WGW[686].id=887
Net.WGW[687].id=888
Net.WGW[688].id=889
Net.WGW[689].id=890
Net.WGW[690].id=891
Net.WGW[691].id=892
Net.WGW[692].id=893
Net.WGW[693].id=894
Net.WGW[694].id=895
Net.WGW[695].id=896
Net.WGW[696].id=897
Net.WGW[697].id=898
Net.WGW[698].id=899
Net.WGW[699].id=900
Net.WGW[700].id=901
Net.WGW[701].id=902
Net.WGW[702].id=903
Net.WGW[703].id=904
Net.WGW[704].id=905
Net.WGW[705].id=906
Net.WGW[706].id=907
Net.WGW[707].id=908
Net.WGW[708].id=909
Net.WGW[709].id=910
Net.WGW[710].id=911
Net.WGW[711].id=912
Net.WGW[712].id=913
Net.WGW[713].id=914
Net.WGW[714].id=915
Net.WGW[715].id=916
Net.WGW[716].id=917
Net.WGW[717].id=918
Net.WGW[718].id=919
Net.WGW[719].id=920
Net.IN[0].id=921
Net.IN[1].id=922
Net.IN[2].id=923
Net.IN[3].id=924
Net.IN[4].id=925
Net.IN[5].id=926
Net.IN[6].id=927
Net.IN[7].id=928
Net.IN[8].id=929
Net.IN[9].id=930
Net.IN[10].id=931
Net.IN[11].id=932
Net.IN[12].id=933
Net.IN[13].id=934
Net.IN[14].id=935
Net.IN[15].id=936
Net.IN[16].id=937
Net.IN[17].id=938
Net.IN[18].id=939
Net.IN[19].id=940
Net.IN[20].id=941
Net.IN[21].id=942
Net.IN[22].id=943
Net.IN[23].id=944
Net.IN[24].id=945
Net.IN[25].id=946
Net.IN[26].id=947
Net.IN[27].id=948
Net.IN[28].id=949
Net.IN[29].id=950
Net.IN[30].id=951
Net.IN[31].id=952
Net.IN[32].id=953
Net.IN[33].id=954
Net.IN[34].id=955
Net.IN[35].id=956
Net.IN[36].id=957
Net.IN[37].id=958
Net.IN[38].id=959
Net.IN[39].id=960
Net.IN[40].id=961
Net.IN[41].id=962
Net.IN[42].id=963
Net.IN[43].id=964
Net.IN[44].id=965
Net.IN[45].id=966
Net.IN[46].id=967
Net.IN[47].id=968
Net.IN[48].id=969
Net.IN[49].id=970
Net.IN[50].id=971
Net.IN[51].id=972
Net.IN[52].id=973
Net.IN[53].id=974
Net.IN[54].id=975
Net.IN[55].id=976
Net.IN[56].id=977
Net.IN[57].id=978
Net.IN[58].id=979
Net.IN[59].id=980
Net.IN[60].id=981
Net.IN[61].id=982
Net.IN[62].id=983
Net.IN[63].id=984
Net.IN[64].id=985
Net.IN[65].id=986
Net.IN[66].id=987
Net.IN[67].id=988
Net.IN[68].id=989
Net.IN[69].id=990
Net.IN[70].id=991
Net.IN[71].id=992
Net.IN[72].id=993
Net.IN[73].id=994
Net.IN[74].id=995
Net.IN[75].id=996
Net.IN[76].id=997
Net.IN[77].id=998
Net.IN[78].id=999
